*SPEF "1481-1998"
*DESIGN "FIFO"
*DATE "Wed Feb  8 10:25:39 2023"
*VENDOR "Synopsys, Inc."
*PROGRAM "icc_shell"
*VERSION "Q-2019.12"
*DESIGN_FLOW "PIN_CAP NONE"
*DIVIDER /
*DELIMITER :
*BUS_DELIMITER [ ]
*T_UNIT 1 NS
*C_UNIT 1 FF
*R_UNIT 1 OHM
*L_UNIT 1 HENRY

*NAME_MAP
*1 Data_In[1]
*2 Data_In[0]
*3 VDD
*4 VSS
*5 Data_In[9]
*6 Data_In[8]
*7 Data_In[7]
*8 Data_In[6]
*9 Data_In[5]
*10 Data_In[4]
*11 Data_In[3]
*12 Data_In[2]
*13 Data_In[17]
*14 Data_In[16]
*15 Data_In[15]
*16 Data_In[14]
*17 Data_In[13]
*18 Data_In[12]
*19 Data_In[11]
*20 Data_In[10]
*21 Data_In[25]
*22 Data_In[24]
*23 Data_In[23]
*24 Data_In[22]
*25 Data_In[21]
*26 Data_In[20]
*27 Data_In[19]
*28 Data_In[18]
*29 F_Data[1]
*30 F_Data[0]
*31 Data_In[31]
*32 Data_In[30]
*33 Data_In[29]
*34 Data_In[28]
*35 Data_In[27]
*36 Data_In[26]
*37 F_Data[9]
*38 F_Data[8]
*39 F_Data[7]
*40 F_Data[6]
*41 F_Data[5]
*42 F_Data[4]
*43 F_Data[3]
*44 F_Data[2]
*45 F_Data[17]
*46 F_Data[16]
*47 F_Data[15]
*48 F_Data[14]
*49 F_Data[13]
*50 F_Data[12]
*51 F_Data[11]
*52 F_Data[10]
*53 F_Data[25]
*54 F_Data[24]
*55 F_Data[23]
*56 F_Data[22]
*57 F_Data[21]
*58 F_Data[20]
*59 F_Data[19]
*60 F_Data[18]
*61 RstN
*62 Clk
*63 F_Data[31]
*64 F_Data[30]
*65 F_Data[29]
*66 F_Data[28]
*67 F_Data[27]
*68 F_Data[26]
*69 F_EmptyN
*70 F_FirstN
*71 F_SLastN
*72 F_LastN
*73 F_FullN
*74 FOutN
*75 FInN
*76 FClrN
*77 N47
*78 add_85/U2
*79 U211
*80 wr_ptr\[31\]
*81 memblk/U138
*82 wr_ptr_reg\[31\]
*83 add_85/carry\[31\]
*84 add_85/U1_1_30
*85 wr_ptr\[0\]
*86 add_85/U1
*87 add_85/U1_1_1
*88 memblk/U141
*89 memblk/U84
*90 memblk/U34
*91 U274
*92 wr_ptr_reg\[0\]
*93 N16
*94 N17
*95 U273
*96 wr_ptr\[1\]
*97 memblk/U87
*98 memblk/U83
*99 wr_ptr_reg\[1\]
*100 add_85/carry\[2\]
*101 add_85/U1_1_2
*102 N31
*103 add_85/U1_1_15
*104 U227
*105 add_85/carry\[15\]
*106 add_85/U1_1_14
*107 wr_ptr\[15\]
*108 memblk/U144
*109 wr_ptr_reg\[15\]
*110 add_85/carry\[16\]
*111 add_85/U1_1_16
*112 N19
*113 add_85/U1_1_3
*114 U271
*115 add_85/carry\[3\]
*116 wr_ptr\[3\]
*117 memblk/U137
*118 wr_ptr_reg\[3\]
*119 add_85/carry\[4\]
*120 add_85/U1_1_4
*121 N23
*122 add_85/U1_1_7
*123 U267
*124 add_85/carry\[7\]
*125 add_85/U1_1_6
*126 wr_ptr\[7\]
*127 memblk/U136
*128 wr_ptr_reg\[7\]
*129 add_85/carry\[8\]
*130 add_85/U1_1_8
*131 N27
*132 add_85/U1_1_11
*133 U231
*134 add_85/carry\[11\]
*135 add_85/U1_1_10
*136 wr_ptr\[11\]
*137 memblk/U140
*138 wr_ptr_reg\[11\]
*139 add_85/carry\[12\]
*140 add_85/U1_1_12
*141 N33
*142 add_85/U1_1_17
*143 U225
*144 add_85/carry\[17\]
*145 wr_ptr\[17\]
*146 memblk/U143
*147 wr_ptr_reg\[17\]
*148 add_85/carry\[18\]
*149 add_85/U1_1_18
*150 N37
*151 add_85/U1_1_21
*152 U221
*153 add_85/carry\[21\]
*154 add_85/U1_1_20
*155 wr_ptr\[21\]
*156 memblk/U142
*157 wr_ptr_reg\[21\]
*158 add_85/carry\[22\]
*159 add_85/U1_1_22
*160 N41
*161 add_85/U1_1_25
*162 U217
*163 add_85/carry\[25\]
*164 add_85/U1_1_24
*165 wr_ptr\[25\]
*166 memblk/U139
*167 wr_ptr_reg\[25\]
*168 add_85/carry\[26\]
*169 add_85/U1_1_26
*170 N45
*171 add_85/U1_1_29
*172 U213
*173 add_85/carry\[29\]
*174 add_85/U1_1_28
*175 wr_ptr\[29\]
*176 wr_ptr_reg\[29\]
*177 add_85/carry\[30\]
*178 N18
*179 U272
*180 wr_ptr\[2\]
*181 wr_ptr_reg\[2\]
*182 N20
*183 U270
*184 wr_ptr\[4\]
*185 wr_ptr_reg\[4\]
*186 add_85/carry\[5\]
*187 add_85/U1_1_5
*188 N24
*189 U234
*190 wr_ptr\[8\]
*191 wr_ptr_reg\[8\]
*192 add_85/carry\[9\]
*193 add_85/U1_1_9
*194 N28
*195 U230
*196 wr_ptr\[12\]
*197 wr_ptr_reg\[12\]
*198 add_85/carry\[13\]
*199 add_85/U1_1_13
*200 N32
*201 U226
*202 wr_ptr\[16\]
*203 wr_ptr_reg\[16\]
*204 N29
*205 U229
*206 wr_ptr\[13\]
*207 wr_ptr_reg\[13\]
*208 add_85/carry\[14\]
*209 N34
*210 U224
*211 wr_ptr\[18\]
*212 wr_ptr_reg\[18\]
*213 add_85/carry\[19\]
*214 add_85/U1_1_19
*215 N38
*216 U220
*217 wr_ptr\[22\]
*218 wr_ptr_reg\[22\]
*219 add_85/carry\[23\]
*220 add_85/U1_1_23
*221 N42
*222 U216
*223 wr_ptr\[26\]
*224 wr_ptr_reg\[26\]
*225 add_85/carry\[27\]
*226 add_85/U1_1_27
*227 N21
*228 U269
*229 wr_ptr\[5\]
*230 wr_ptr_reg\[5\]
*231 add_85/carry\[6\]
*232 N25
*233 U233
*234 wr_ptr\[9\]
*235 wr_ptr_reg\[9\]
*236 add_85/carry\[10\]
*237 N26
*238 U232
*239 wr_ptr\[10\]
*240 wr_ptr_reg\[10\]
*241 N30
*242 U228
*243 wr_ptr\[14\]
*244 wr_ptr_reg\[14\]
*245 N35
*246 U223
*247 wr_ptr\[19\]
*248 wr_ptr_reg\[19\]
*249 add_85/carry\[20\]
*250 N39
*251 U219
*252 wr_ptr\[23\]
*253 wr_ptr_reg\[23\]
*254 add_85/carry\[24\]
*255 N43
*256 U215
*257 wr_ptr\[27\]
*258 wr_ptr_reg\[27\]
*259 add_85/carry\[28\]
*260 N22
*261 U268
*262 wr_ptr\[6\]
*263 wr_ptr_reg\[6\]
*264 N36
*265 U222
*266 wr_ptr\[20\]
*267 wr_ptr_reg\[20\]
*268 N40
*269 U218
*270 wr_ptr\[24\]
*271 wr_ptr_reg\[24\]
*272 N44
*273 U214
*274 wr_ptr\[28\]
*275 wr_ptr_reg\[28\]
*276 N46
*277 U212
*278 wr_ptr\[30\]
*279 wr_ptr_reg\[30\]
*280 N79
*281 add_88/U2
*282 U235
*283 rd_ptr\[31\]
*284 rd_ptr_reg\[31\]
*285 add_88/carry\[31\]
*286 add_88/U1_1_30
*287 rd_ptr\[0\]
*288 add_88/U1
*289 add_88/U1_1_1
*290 memblk/U182
*291 memblk/U180
*292 memblk/U177
*293 U282
*294 rd_ptr_reg\[0\]
*295 N48
*296 N49
*297 U281
*298 rd_ptr\[1\]
*299 memblk/U179
*300 memblk/U178
*301 rd_ptr_reg\[1\]
*302 add_88/carry\[2\]
*303 add_88/U1_1_2
*304 N50
*305 U280
*306 rd_ptr\[2\]
*307 rd_ptr_reg\[2\]
*308 add_88/carry\[3\]
*309 add_88/U1_1_3
*310 N51
*311 U279
*312 rd_ptr\[3\]
*313 rd_ptr_reg\[3\]
*314 add_88/carry\[4\]
*315 add_88/U1_1_4
*316 N52
*317 U278
*318 rd_ptr\[4\]
*319 rd_ptr_reg\[4\]
*320 add_88/carry\[5\]
*321 add_88/U1_1_5
*322 N53
*323 U277
*324 rd_ptr\[5\]
*325 rd_ptr_reg\[5\]
*326 add_88/carry\[6\]
*327 add_88/U1_1_6
*328 N54
*329 U276
*330 rd_ptr\[6\]
*331 rd_ptr_reg\[6\]
*332 add_88/carry\[7\]
*333 add_88/U1_1_7
*334 N55
*335 U275
*336 rd_ptr\[7\]
*337 rd_ptr_reg\[7\]
*338 add_88/carry\[8\]
*339 add_88/U1_1_8
*340 N56
*341 U258
*342 rd_ptr\[8\]
*343 rd_ptr_reg\[8\]
*344 add_88/carry\[9\]
*345 add_88/U1_1_9
*346 N57
*347 U257
*348 rd_ptr\[9\]
*349 rd_ptr_reg\[9\]
*350 add_88/carry\[10\]
*351 add_88/U1_1_10
*352 N58
*353 U256
*354 rd_ptr\[10\]
*355 rd_ptr_reg\[10\]
*356 add_88/carry\[11\]
*357 add_88/U1_1_11
*358 N59
*359 U255
*360 rd_ptr\[11\]
*361 rd_ptr_reg\[11\]
*362 add_88/carry\[12\]
*363 add_88/U1_1_12
*364 N60
*365 U254
*366 rd_ptr\[12\]
*367 rd_ptr_reg\[12\]
*368 add_88/carry\[13\]
*369 add_88/U1_1_13
*370 N61
*371 U253
*372 rd_ptr\[13\]
*373 rd_ptr_reg\[13\]
*374 add_88/carry\[14\]
*375 add_88/U1_1_14
*376 N62
*377 U252
*378 rd_ptr\[14\]
*379 rd_ptr_reg\[14\]
*380 add_88/carry\[15\]
*381 add_88/U1_1_15
*382 N63
*383 U251
*384 rd_ptr\[15\]
*385 rd_ptr_reg\[15\]
*386 add_88/carry\[16\]
*387 add_88/U1_1_16
*388 N64
*389 U250
*390 rd_ptr\[16\]
*391 rd_ptr_reg\[16\]
*392 add_88/carry\[17\]
*393 add_88/U1_1_17
*394 N65
*395 U249
*396 rd_ptr\[17\]
*397 rd_ptr_reg\[17\]
*398 add_88/carry\[18\]
*399 add_88/U1_1_18
*400 N66
*401 U248
*402 rd_ptr\[18\]
*403 rd_ptr_reg\[18\]
*404 add_88/carry\[19\]
*405 add_88/U1_1_19
*406 N67
*407 U247
*408 rd_ptr\[19\]
*409 rd_ptr_reg\[19\]
*410 add_88/carry\[20\]
*411 add_88/U1_1_20
*412 N68
*413 U246
*414 rd_ptr\[20\]
*415 rd_ptr_reg\[20\]
*416 add_88/carry\[21\]
*417 add_88/U1_1_21
*418 N69
*419 U245
*420 rd_ptr\[21\]
*421 rd_ptr_reg\[21\]
*422 add_88/carry\[22\]
*423 add_88/U1_1_22
*424 N70
*425 U244
*426 rd_ptr\[22\]
*427 rd_ptr_reg\[22\]
*428 add_88/carry\[23\]
*429 add_88/U1_1_23
*430 N71
*431 U243
*432 rd_ptr\[23\]
*433 rd_ptr_reg\[23\]
*434 add_88/carry\[24\]
*435 add_88/U1_1_24
*436 N72
*437 U242
*438 rd_ptr\[24\]
*439 rd_ptr_reg\[24\]
*440 add_88/carry\[25\]
*441 add_88/U1_1_25
*442 N73
*443 U241
*444 rd_ptr\[25\]
*445 rd_ptr_reg\[25\]
*446 add_88/carry\[26\]
*447 add_88/U1_1_26
*448 N74
*449 U240
*450 rd_ptr\[26\]
*451 rd_ptr_reg\[26\]
*452 add_88/carry\[27\]
*453 add_88/U1_1_27
*454 N75
*455 U239
*456 rd_ptr\[27\]
*457 rd_ptr_reg\[27\]
*458 add_88/carry\[28\]
*459 add_88/U1_1_28
*460 N76
*461 U238
*462 rd_ptr\[28\]
*463 rd_ptr_reg\[28\]
*464 add_88/carry\[29\]
*465 add_88/U1_1_29
*466 N77
*467 U237
*468 rd_ptr\[29\]
*469 rd_ptr_reg\[29\]
*470 add_88/carry\[30\]
*471 N78
*472 U236
*473 rd_ptr\[30\]
*474 rd_ptr_reg\[30\]
*475 N115
*476 add_91/U2
*477 U206
*478 fcounter\[31\]
*479 sub_94/U38
*480 U299
*481 fcounter_reg\[31\]
*482 add_91/carry\[31\]
*483 add_91/U1_1_30
*484 fcounter\[0\]
*485 add_91/U1
*486 add_91/U1_1_1
*487 sub_94/U91
*488 sub_94/U62
*489 sub_94/U30
*490 U285
*491 U266
*492 fcounter_reg\[0\]
*493 N84
*494 N85
*495 U265
*496 fcounter\[1\]
*497 U296
*498 U288
*499 fcounter_reg\[1\]
*500 add_91/carry\[2\]
*501 add_91/U1_1_2
*502 N89
*503 add_91/U1_1_5
*504 U195
*505 add_91/carry\[5\]
*506 add_91/U1_1_4
*507 fcounter\[5\]
*508 sub_94/U87
*509 sub_94/U35
*510 fcounter_reg\[5\]
*511 add_91/carry\[6\]
*512 add_91/U1_1_6
*513 N93
*514 add_91/U1_1_9
*515 U191
*516 add_91/carry\[9\]
*517 add_91/U1_1_8
*518 fcounter\[9\]
*519 sub_94/U83
*520 sub_94/U31
*521 U300
*522 fcounter_reg\[9\]
*523 add_91/carry\[10\]
*524 add_91/U1_1_10
*525 N100
*526 add_91/U1_1_16
*527 U184
*528 add_91/carry\[16\]
*529 add_91/U1_1_15
*530 fcounter\[16\]
*531 sub_94/U70
*532 sub_94/U69
*533 U301
*534 fcounter_reg\[16\]
*535 add_91/carry\[17\]
*536 add_91/U1_1_17
*537 N109
*538 add_91/U1_1_25
*539 U204
*540 add_91/carry\[25\]
*541 add_91/U1_1_24
*542 fcounter\[25\]
*543 sub_94/U51
*544 sub_94/U50
*545 U298
*546 fcounter_reg\[25\]
*547 add_91/carry\[26\]
*548 add_91/U1_1_26
*549 N104
*550 add_91/U1_1_20
*551 U180
*552 add_91/carry\[20\]
*553 add_91/U1_1_19
*554 fcounter\[20\]
*555 sub_94/U61
*556 sub_94/U60
*557 fcounter_reg\[20\]
*558 U55
*559 add_91/carry\[21\]
*560 add_91/U1_1_21
*561 N108
*562 U205
*563 add_91/carry\[24\]
*564 add_91/U1_1_23
*565 fcounter\[24\]
*566 sub_94/U53
*567 sub_94/U52
*568 fcounter_reg\[24\]
*569 U54
*570 N86
*571 U198
*572 fcounter\[2\]
*573 sub_94/U90
*574 sub_94/U41
*575 U302
*576 fcounter_reg\[2\]
*577 add_91/carry\[3\]
*578 add_91/U1_1_3
*579 N88
*580 U196
*581 add_91/carry\[4\]
*582 fcounter\[4\]
*583 sub_94/U88
*584 sub_94/U36
*585 fcounter_reg\[4\]
*586 N92
*587 U192
*588 add_91/carry\[8\]
*589 add_91/U1_1_7
*590 fcounter\[8\]
*591 sub_94/U84
*592 sub_94/U32
*593 fcounter_reg\[8\]
*594 N87
*595 U197
*596 fcounter\[3\]
*597 sub_94/U89
*598 sub_94/U37
*599 fcounter_reg\[3\]
*600 N91
*601 U193
*602 add_91/carry\[7\]
*603 fcounter\[7\]
*604 sub_94/U85
*605 sub_94/U33
*606 fcounter_reg\[7\]
*607 N94
*608 U190
*609 fcounter\[10\]
*610 sub_94/U82
*611 sub_94/U81
*612 fcounter_reg\[10\]
*613 U52
*614 add_91/carry\[11\]
*615 add_91/U1_1_11
*616 N99
*617 U185
*618 add_91/carry\[15\]
*619 add_91/U1_1_14
*620 fcounter\[15\]
*621 sub_94/U72
*622 sub_94/U71
*623 fcounter_reg\[15\]
*624 N98
*625 U186
*626 add_91/carry\[14\]
*627 add_91/U1_1_13
*628 fcounter\[14\]
*629 sub_94/U74
*630 sub_94/U73
*631 fcounter_reg\[14\]
*632 N103
*633 U181
*634 add_91/carry\[19\]
*635 add_91/U1_1_18
*636 fcounter\[19\]
*637 sub_94/U64
*638 sub_94/U63
*639 fcounter_reg\[19\]
*640 N107
*641 U177
*642 add_91/carry\[23\]
*643 add_91/U1_1_22
*644 fcounter\[23\]
*645 sub_94/U55
*646 sub_94/U54
*647 fcounter_reg\[23\]
*648 N111
*649 add_91/U1_1_27
*650 U202
*651 add_91/carry\[27\]
*652 fcounter\[27\]
*653 sub_94/U47
*654 sub_94/U46
*655 fcounter_reg\[27\]
*656 add_91/carry\[28\]
*657 add_91/U1_1_28
*658 N113
*659 add_91/U1_1_29
*660 U200
*661 add_91/carry\[29\]
*662 fcounter\[29\]
*663 sub_94/U43
*664 sub_94/U42
*665 fcounter_reg\[29\]
*666 add_91/carry\[30\]
*667 N90
*668 U194
*669 fcounter\[6\]
*670 sub_94/U86
*671 sub_94/U34
*672 fcounter_reg\[6\]
*673 N96
*674 add_91/U1_1_12
*675 U188
*676 add_91/carry\[12\]
*677 fcounter\[12\]
*678 sub_94/U78
*679 sub_94/U77
*680 fcounter_reg\[12\]
*681 add_91/carry\[13\]
*682 N97
*683 U187
*684 fcounter\[13\]
*685 sub_94/U76
*686 sub_94/U75
*687 fcounter_reg\[13\]
*688 N102
*689 U182
*690 add_91/carry\[18\]
*691 fcounter\[18\]
*692 sub_94/U66
*693 sub_94/U65
*694 fcounter_reg\[18\]
*695 N106
*696 U178
*697 add_91/carry\[22\]
*698 fcounter\[22\]
*699 sub_94/U57
*700 sub_94/U56
*701 fcounter_reg\[22\]
*702 N112
*703 U201
*704 fcounter\[28\]
*705 sub_94/U45
*706 sub_94/U44
*707 fcounter_reg\[28\]
*708 N95
*709 U189
*710 fcounter\[11\]
*711 sub_94/U80
*712 sub_94/U79
*713 fcounter_reg\[11\]
*714 N101
*715 U183
*716 fcounter\[17\]
*717 sub_94/U68
*718 sub_94/U67
*719 fcounter_reg\[17\]
*720 N105
*721 U179
*722 fcounter\[21\]
*723 sub_94/U59
*724 sub_94/U58
*725 fcounter_reg\[21\]
*726 N110
*727 U203
*728 fcounter\[26\]
*729 sub_94/U49
*730 sub_94/U48
*731 fcounter_reg\[26\]
*732 N114
*733 U199
*734 fcounter\[30\]
*735 sub_94/U40
*736 sub_94/U39
*737 fcounter_reg\[30\]
*738 sub_94/n41
*739 sub_94/U29
*740 sub_94/n38
*741 sub_94/U23
*742 sub_94/n37
*743 sub_94/U22
*744 sub_94/n36
*745 sub_94/U21
*746 sub_94/n35
*747 sub_94/U20
*748 sub_94/n34
*749 sub_94/U19
*750 sub_94/n33
*751 sub_94/U18
*752 sub_94/n31
*753 sub_94/U17
*754 sub_94/n32
*755 sub_94/U16
*756 sub_94/n60
*757 sub_94/U15
*758 N126
*759 sub_94/n1
*760 sub_94/n59
*761 sub_94/U14
*762 N127
*763 sub_94/n2
*764 sub_94/n58
*765 sub_94/U13
*766 N128
*767 sub_94/n3
*768 sub_94/n57
*769 sub_94/U12
*770 N129
*771 sub_94/n4
*772 sub_94/n56
*773 sub_94/U11
*774 N130
*775 sub_94/n5
*776 sub_94/n55
*777 sub_94/U10
*778 N131
*779 sub_94/n6
*780 sub_94/n54
*781 sub_94/U9
*782 N132
*783 sub_94/n7
*784 sub_94/n53
*785 sub_94/U8
*786 N133
*787 sub_94/n8
*788 sub_94/n52
*789 sub_94/U7
*790 N134
*791 sub_94/n9
*792 sub_94/n51
*793 sub_94/U6
*794 N135
*795 sub_94/n10
*796 N117
*797 sub_94/n29
*798 sub_94/n50
*799 sub_94/U5
*800 N136
*801 sub_94/n11
*802 sub_94/n49
*803 sub_94/U4
*804 N137
*805 sub_94/n12
*806 sub_94/n48
*807 sub_94/U3
*808 N138
*809 sub_94/n13
*810 sub_94/n47
*811 sub_94/U2
*812 N139
*813 sub_94/n14
*814 sub_94/n46
*815 sub_94/U28
*816 N140
*817 sub_94/n15
*818 sub_94/n45
*819 sub_94/U27
*820 N141
*821 sub_94/n16
*822 sub_94/n44
*823 sub_94/U26
*824 N142
*825 sub_94/n17
*826 sub_94/n43
*827 sub_94/U25
*828 N143
*829 sub_94/n18
*830 sub_94/n42
*831 sub_94/U24
*832 N144
*833 sub_94/n19
*834 sub_94/n40
*835 sub_94/U1
*836 N145
*837 sub_94/n20
*838 N118
*839 sub_94/n28
*840 N146
*841 sub_94/n39
*842 N147
*843 N119
*844 sub_94/n27
*845 N120
*846 sub_94/n26
*847 N121
*848 sub_94/n25
*849 N122
*850 sub_94/n24
*851 N123
*852 sub_94/n23
*853 N124
*854 sub_94/n22
*855 N125
*856 sub_94/n21
*857 N116
*858 memblk/n177
*859 memblk/U246
*860 memblk/U245
*861 memblk/FIFO\[0\]\[31\]
*862 memblk/U135
*863 memblk/FIFO_reg\[0\]\[31\]
*864 memblk/n188
*865 memblk/U52
*866 memblk/U50
*867 memblk/U51
*868 memblk/U54
*869 memblk/U146
*870 memblk/U55
*871 memblk/U145
*872 memblk/U41
*873 memblk/U147
*874 memblk/U148
*875 memblk/U40
*876 memblk/U151
*877 memblk/U42
*878 memblk/U149
*879 memblk/U152
*880 memblk/U56
*881 memblk/U150
*882 memblk/U57
*883 memblk/U58
*884 memblk/U8
*885 memblk/n189
*886 memblk/U49
*887 memblk/U48
*888 memblk/U47
*889 memblk/U53
*890 memblk/U46
*891 memblk/U45
*892 memblk/U10
*893 memblk/U44
*894 memblk/U43
*895 memblk/U39
*896 memblk/U37
*897 memblk/U38
*898 memblk/U35
*899 memblk/U36
*900 memblk/U9
*901 memblk/FIFO\[1\]\[31\]
*902 memblk/U111
*903 memblk/FIFO_reg\[1\]\[31\]
*904 memblk/n184
*905 memblk/U67
*906 memblk/U66
*907 memblk/U65
*908 memblk/U68
*909 memblk/U70
*910 memblk/U72
*911 memblk/U73
*912 memblk/U159
*913 memblk/U71
*914 memblk/U75
*915 memblk/U74
*916 memblk/U153
*917 memblk/U160
*918 memblk/U80
*919 memblk/U76
*920 memblk/U77
*921 memblk/U79
*922 memblk/U78
*923 memblk/U81
*924 memblk/U82
*925 memblk/U4
*926 memblk/FIFO\[2\]\[31\]
*927 memblk/FIFO_reg\[2\]\[31\]
*928 memblk/n183
*929 memblk/U3
*930 memblk/FIFO\[3\]\[31\]
*931 memblk/FIFO_reg\[3\]\[31\]
*932 memblk/n175
*933 memblk/U244
*934 memblk/U243
*935 memblk/FIFO\[0\]\[30\]
*936 memblk/U134
*937 memblk/FIFO_reg\[0\]\[30\]
*938 memblk/FIFO\[1\]\[30\]
*939 memblk/U110
*940 memblk/FIFO_reg\[1\]\[30\]
*941 memblk/n176
*942 memblk/U225
*943 memblk/U223
*944 memblk/U217
*945 memblk/U215
*946 memblk/U207
*947 memblk/U239
*948 memblk/U237
*949 memblk/U235
*950 memblk/U233
*951 memblk/U231
*952 memblk/U229
*953 memblk/U227
*954 memblk/U209
*955 memblk/U213
*956 memblk/U219
*957 memblk/U211
*958 memblk/U205
*959 memblk/U221
*960 memblk/U203
*961 memblk/U201
*962 memblk/U199
*963 memblk/U191
*964 memblk/U195
*965 memblk/U193
*966 memblk/U189
*967 memblk/U197
*968 memblk/U241
*969 memblk/U187
*970 memblk/U183
*971 memblk/U185
*972 memblk/FIFO\[2\]\[30\]
*973 memblk/FIFO_reg\[2\]\[30\]
*974 memblk/FIFO\[3\]\[30\]
*975 memblk/FIFO_reg\[3\]\[30\]
*976 memblk/n174
*977 memblk/U242
*978 memblk/FIFO\[0\]\[29\]
*979 memblk/U133
*980 memblk/FIFO_reg\[0\]\[29\]
*981 memblk/FIFO\[1\]\[29\]
*982 memblk/U109
*983 memblk/FIFO_reg\[1\]\[29\]
*984 memblk/n185
*985 memblk/U69
*986 memblk/U64
*987 memblk/U63
*988 memblk/U62
*989 memblk/U61
*990 memblk/U6
*991 memblk/U60
*992 memblk/U59
*993 memblk/U158
*994 memblk/U157
*995 memblk/U156
*996 memblk/U155
*997 memblk/U154
*998 memblk/U5
*999 memblk/FIFO\[2\]\[29\]
*1000 memblk/FIFO_reg\[2\]\[29\]
*1001 memblk/FIFO\[3\]\[29\]
*1002 memblk/FIFO_reg\[3\]\[29\]
*1003 memblk/n173
*1004 memblk/U240
*1005 memblk/FIFO\[0\]\[28\]
*1006 memblk/U132
*1007 memblk/FIFO_reg\[0\]\[28\]
*1008 memblk/n191
*1009 memblk/U94
*1010 memblk/U98
*1011 memblk/U95
*1012 memblk/U96
*1013 memblk/U97
*1014 memblk/U99
*1015 memblk/U12
*1016 memblk/U100
*1017 memblk/U101
*1018 memblk/U107
*1019 memblk/U104
*1020 memblk/U102
*1021 memblk/U103
*1022 memblk/U105
*1023 memblk/U108
*1024 memblk/U106
*1025 memblk/U11
*1026 memblk/FIFO\[1\]\[28\]
*1027 memblk/FIFO_reg\[1\]\[28\]
*1028 memblk/FIFO\[2\]\[28\]
*1029 memblk/FIFO_reg\[2\]\[28\]
*1030 memblk/FIFO\[3\]\[28\]
*1031 memblk/FIFO_reg\[3\]\[28\]
*1032 memblk/n172
*1033 memblk/U238
*1034 memblk/FIFO\[0\]\[27\]
*1035 memblk/U131
*1036 memblk/FIFO_reg\[0\]\[27\]
*1037 memblk/FIFO\[1\]\[27\]
*1038 memblk/FIFO_reg\[1\]\[27\]
*1039 memblk/FIFO\[2\]\[27\]
*1040 memblk/FIFO_reg\[2\]\[27\]
*1041 memblk/FIFO\[3\]\[27\]
*1042 memblk/FIFO_reg\[3\]\[27\]
*1043 memblk/n171
*1044 memblk/U236
*1045 memblk/FIFO\[0\]\[26\]
*1046 memblk/U130
*1047 memblk/FIFO_reg\[0\]\[26\]
*1048 memblk/n178
*1049 memblk/U200
*1050 memblk/U198
*1051 memblk/U194
*1052 memblk/U190
*1053 memblk/U181
*1054 memblk/U216
*1055 memblk/U214
*1056 memblk/U232
*1057 memblk/U230
*1058 memblk/U228
*1059 memblk/U220
*1060 memblk/U218
*1061 memblk/U204
*1062 memblk/U202
*1063 memblk/U210
*1064 memblk/U212
*1065 memblk/U208
*1066 memblk/U222
*1067 memblk/U206
*1068 memblk/U224
*1069 memblk/U226
*1070 memblk/U234
*1071 memblk/U196
*1072 memblk/U188
*1073 memblk/U192
*1074 memblk/U184
*1075 memblk/U186
*1076 memblk/FIFO\[1\]\[26\]
*1077 memblk/FIFO_reg\[1\]\[26\]
*1078 memblk/FIFO\[2\]\[26\]
*1079 memblk/FIFO_reg\[2\]\[26\]
*1080 memblk/FIFO\[3\]\[26\]
*1081 memblk/FIFO_reg\[3\]\[26\]
*1082 memblk/n170
*1083 memblk/FIFO\[0\]\[25\]
*1084 memblk/U129
*1085 memblk/FIFO_reg\[0\]\[25\]
*1086 memblk/FIFO\[1\]\[25\]
*1087 memblk/FIFO_reg\[1\]\[25\]
*1088 memblk/FIFO\[2\]\[25\]
*1089 memblk/FIFO_reg\[2\]\[25\]
*1090 memblk/FIFO\[3\]\[25\]
*1091 memblk/FIFO_reg\[3\]\[25\]
*1092 memblk/n169
*1093 memblk/FIFO\[0\]\[24\]
*1094 memblk/U128
*1095 memblk/FIFO_reg\[0\]\[24\]
*1096 memblk/FIFO\[1\]\[24\]
*1097 memblk/FIFO_reg\[1\]\[24\]
*1098 memblk/FIFO\[2\]\[24\]
*1099 memblk/FIFO_reg\[2\]\[24\]
*1100 memblk/FIFO\[3\]\[24\]
*1101 memblk/FIFO_reg\[3\]\[24\]
*1102 memblk/n168
*1103 memblk/FIFO\[0\]\[23\]
*1104 memblk/U127
*1105 memblk/FIFO_reg\[0\]\[23\]
*1106 memblk/FIFO\[1\]\[23\]
*1107 memblk/FIFO_reg\[1\]\[23\]
*1108 memblk/FIFO\[2\]\[23\]
*1109 memblk/FIFO_reg\[2\]\[23\]
*1110 memblk/FIFO\[3\]\[23\]
*1111 memblk/FIFO_reg\[3\]\[23\]
*1112 memblk/n167
*1113 memblk/FIFO\[0\]\[22\]
*1114 memblk/U126
*1115 memblk/FIFO_reg\[0\]\[22\]
*1116 memblk/FIFO\[1\]\[22\]
*1117 memblk/FIFO_reg\[1\]\[22\]
*1118 memblk/FIFO\[2\]\[22\]
*1119 memblk/FIFO_reg\[2\]\[22\]
*1120 memblk/FIFO\[3\]\[22\]
*1121 memblk/FIFO_reg\[3\]\[22\]
*1122 memblk/n166
*1123 memblk/FIFO\[0\]\[21\]
*1124 memblk/U125
*1125 memblk/FIFO_reg\[0\]\[21\]
*1126 memblk/FIFO\[1\]\[21\]
*1127 memblk/FIFO_reg\[1\]\[21\]
*1128 memblk/FIFO\[2\]\[21\]
*1129 memblk/FIFO_reg\[2\]\[21\]
*1130 memblk/FIFO\[3\]\[21\]
*1131 memblk/FIFO_reg\[3\]\[21\]
*1132 memblk/n165
*1133 memblk/FIFO\[0\]\[20\]
*1134 memblk/U124
*1135 memblk/FIFO_reg\[0\]\[20\]
*1136 memblk/n187
*1137 memblk/U7
*1138 memblk/FIFO\[1\]\[20\]
*1139 memblk/FIFO_reg\[1\]\[20\]
*1140 memblk/FIFO\[2\]\[20\]
*1141 memblk/FIFO_reg\[2\]\[20\]
*1142 memblk/n182
*1143 memblk/U2
*1144 memblk/FIFO\[3\]\[20\]
*1145 memblk/FIFO_reg\[3\]\[20\]
*1146 memblk/n164
*1147 memblk/FIFO\[0\]\[19\]
*1148 memblk/U123
*1149 memblk/FIFO_reg\[0\]\[19\]
*1150 memblk/FIFO\[1\]\[19\]
*1151 memblk/FIFO_reg\[1\]\[19\]
*1152 memblk/FIFO\[2\]\[19\]
*1153 memblk/FIFO_reg\[2\]\[19\]
*1154 memblk/FIFO\[3\]\[19\]
*1155 memblk/FIFO_reg\[3\]\[19\]
*1156 memblk/n163
*1157 memblk/FIFO\[0\]\[18\]
*1158 memblk/U122
*1159 memblk/FIFO_reg\[0\]\[18\]
*1160 memblk/FIFO\[1\]\[18\]
*1161 memblk/FIFO_reg\[1\]\[18\]
*1162 memblk/FIFO\[2\]\[18\]
*1163 memblk/FIFO_reg\[2\]\[18\]
*1164 memblk/FIFO\[3\]\[18\]
*1165 memblk/FIFO_reg\[3\]\[18\]
*1166 memblk/n162
*1167 memblk/FIFO\[0\]\[17\]
*1168 memblk/U121
*1169 memblk/FIFO_reg\[0\]\[17\]
*1170 memblk/FIFO\[1\]\[17\]
*1171 memblk/FIFO_reg\[1\]\[17\]
*1172 memblk/FIFO\[2\]\[17\]
*1173 memblk/FIFO_reg\[2\]\[17\]
*1174 memblk/FIFO\[3\]\[17\]
*1175 memblk/FIFO_reg\[3\]\[17\]
*1176 memblk/n161
*1177 memblk/FIFO\[0\]\[16\]
*1178 memblk/U120
*1179 memblk/FIFO_reg\[0\]\[16\]
*1180 memblk/FIFO\[1\]\[16\]
*1181 memblk/FIFO_reg\[1\]\[16\]
*1182 memblk/FIFO\[2\]\[16\]
*1183 memblk/FIFO_reg\[2\]\[16\]
*1184 memblk/FIFO\[3\]\[16\]
*1185 memblk/FIFO_reg\[3\]\[16\]
*1186 memblk/n160
*1187 memblk/FIFO\[0\]\[15\]
*1188 memblk/U119
*1189 memblk/FIFO_reg\[0\]\[15\]
*1190 memblk/FIFO\[1\]\[15\]
*1191 memblk/FIFO_reg\[1\]\[15\]
*1192 memblk/FIFO\[2\]\[15\]
*1193 memblk/FIFO_reg\[2\]\[15\]
*1194 memblk/FIFO\[3\]\[15\]
*1195 memblk/FIFO_reg\[3\]\[15\]
*1196 memblk/n159
*1197 memblk/FIFO\[0\]\[14\]
*1198 memblk/U118
*1199 memblk/FIFO_reg\[0\]\[14\]
*1200 memblk/FIFO\[1\]\[14\]
*1201 memblk/FIFO_reg\[1\]\[14\]
*1202 memblk/FIFO\[2\]\[14\]
*1203 memblk/FIFO_reg\[2\]\[14\]
*1204 memblk/FIFO\[3\]\[14\]
*1205 memblk/FIFO_reg\[3\]\[14\]
*1206 memblk/n158
*1207 memblk/FIFO\[0\]\[13\]
*1208 memblk/U117
*1209 memblk/FIFO_reg\[0\]\[13\]
*1210 memblk/FIFO\[1\]\[13\]
*1211 memblk/U93
*1212 memblk/FIFO_reg\[1\]\[13\]
*1213 memblk/FIFO\[2\]\[13\]
*1214 memblk/FIFO_reg\[2\]\[13\]
*1215 memblk/FIFO\[3\]\[13\]
*1216 memblk/FIFO_reg\[3\]\[13\]
*1217 memblk/n157
*1218 memblk/FIFO\[0\]\[12\]
*1219 memblk/U116
*1220 memblk/FIFO_reg\[0\]\[12\]
*1221 memblk/FIFO\[1\]\[12\]
*1222 memblk/U92
*1223 memblk/FIFO_reg\[1\]\[12\]
*1224 memblk/FIFO\[2\]\[12\]
*1225 memblk/FIFO_reg\[2\]\[12\]
*1226 memblk/FIFO\[3\]\[12\]
*1227 memblk/FIFO_reg\[3\]\[12\]
*1228 memblk/n156
*1229 memblk/FIFO\[0\]\[11\]
*1230 memblk/U115
*1231 memblk/FIFO_reg\[0\]\[11\]
*1232 memblk/FIFO\[1\]\[11\]
*1233 memblk/U91
*1234 memblk/FIFO_reg\[1\]\[11\]
*1235 memblk/FIFO\[2\]\[11\]
*1236 memblk/FIFO_reg\[2\]\[11\]
*1237 memblk/FIFO\[3\]\[11\]
*1238 memblk/FIFO_reg\[3\]\[11\]
*1239 memblk/n155
*1240 memblk/FIFO\[0\]\[10\]
*1241 memblk/U114
*1242 memblk/FIFO_reg\[0\]\[10\]
*1243 memblk/FIFO\[1\]\[10\]
*1244 memblk/U90
*1245 memblk/FIFO_reg\[1\]\[10\]
*1246 memblk/FIFO\[2\]\[10\]
*1247 memblk/FIFO_reg\[2\]\[10\]
*1248 memblk/FIFO\[3\]\[10\]
*1249 memblk/FIFO_reg\[3\]\[10\]
*1250 memblk/n154
*1251 memblk/FIFO\[0\]\[9\]
*1252 memblk/U113
*1253 memblk/FIFO_reg\[0\]\[9\]
*1254 memblk/n186
*1255 memblk/FIFO\[1\]\[9\]
*1256 memblk/U89
*1257 memblk/FIFO_reg\[1\]\[9\]
*1258 memblk/FIFO\[2\]\[9\]
*1259 memblk/FIFO_reg\[2\]\[9\]
*1260 memblk/n181
*1261 memblk/U1
*1262 memblk/FIFO\[3\]\[9\]
*1263 memblk/FIFO_reg\[3\]\[9\]
*1264 memblk/n153
*1265 memblk/FIFO\[0\]\[8\]
*1266 memblk/U112
*1267 memblk/FIFO_reg\[0\]\[8\]
*1268 memblk/FIFO\[1\]\[8\]
*1269 memblk/U88
*1270 memblk/FIFO_reg\[1\]\[8\]
*1271 memblk/FIFO\[2\]\[8\]
*1272 memblk/FIFO_reg\[2\]\[8\]
*1273 memblk/FIFO\[3\]\[8\]
*1274 memblk/FIFO_reg\[3\]\[8\]
*1275 memblk/n152
*1276 memblk/FIFO\[0\]\[7\]
*1277 memblk/U176
*1278 memblk/FIFO_reg\[0\]\[7\]
*1279 memblk/FIFO\[1\]\[7\]
*1280 memblk/U168
*1281 memblk/FIFO_reg\[1\]\[7\]
*1282 memblk/FIFO\[2\]\[7\]
*1283 memblk/FIFO_reg\[2\]\[7\]
*1284 memblk/FIFO\[3\]\[7\]
*1285 memblk/FIFO_reg\[3\]\[7\]
*1286 memblk/n151
*1287 memblk/FIFO\[0\]\[6\]
*1288 memblk/U175
*1289 memblk/FIFO_reg\[0\]\[6\]
*1290 memblk/FIFO\[1\]\[6\]
*1291 memblk/U167
*1292 memblk/FIFO_reg\[1\]\[6\]
*1293 memblk/FIFO\[2\]\[6\]
*1294 memblk/FIFO_reg\[2\]\[6\]
*1295 memblk/FIFO\[3\]\[6\]
*1296 memblk/FIFO_reg\[3\]\[6\]
*1297 memblk/n150
*1298 memblk/FIFO\[0\]\[5\]
*1299 memblk/U174
*1300 memblk/FIFO_reg\[0\]\[5\]
*1301 memblk/FIFO\[1\]\[5\]
*1302 memblk/U166
*1303 memblk/FIFO_reg\[1\]\[5\]
*1304 memblk/FIFO\[2\]\[5\]
*1305 memblk/FIFO_reg\[2\]\[5\]
*1306 memblk/FIFO\[3\]\[5\]
*1307 memblk/FIFO_reg\[3\]\[5\]
*1308 memblk/n149
*1309 memblk/FIFO\[0\]\[4\]
*1310 memblk/U173
*1311 memblk/FIFO_reg\[0\]\[4\]
*1312 memblk/FIFO\[1\]\[4\]
*1313 memblk/U165
*1314 memblk/FIFO_reg\[1\]\[4\]
*1315 memblk/FIFO\[2\]\[4\]
*1316 memblk/FIFO_reg\[2\]\[4\]
*1317 memblk/FIFO\[3\]\[4\]
*1318 memblk/FIFO_reg\[3\]\[4\]
*1319 memblk/n6
*1320 memblk/FIFO\[0\]\[3\]
*1321 memblk/U172
*1322 memblk/FIFO_reg\[0\]\[3\]
*1323 memblk/FIFO\[1\]\[3\]
*1324 memblk/U164
*1325 memblk/FIFO_reg\[1\]\[3\]
*1326 memblk/FIFO\[2\]\[3\]
*1327 memblk/FIFO_reg\[2\]\[3\]
*1328 memblk/FIFO\[3\]\[3\]
*1329 memblk/FIFO_reg\[3\]\[3\]
*1330 memblk/n5
*1331 memblk/FIFO\[0\]\[2\]
*1332 memblk/U171
*1333 memblk/FIFO_reg\[0\]\[2\]
*1334 memblk/FIFO\[1\]\[2\]
*1335 memblk/U163
*1336 memblk/FIFO_reg\[1\]\[2\]
*1337 memblk/FIFO\[2\]\[2\]
*1338 memblk/FIFO_reg\[2\]\[2\]
*1339 memblk/FIFO\[3\]\[2\]
*1340 memblk/FIFO_reg\[3\]\[2\]
*1341 memblk/n4
*1342 memblk/FIFO\[0\]\[1\]
*1343 memblk/U170
*1344 memblk/FIFO_reg\[0\]\[1\]
*1345 memblk/FIFO\[1\]\[1\]
*1346 memblk/U162
*1347 memblk/FIFO_reg\[1\]\[1\]
*1348 memblk/FIFO\[2\]\[1\]
*1349 memblk/FIFO_reg\[2\]\[1\]
*1350 memblk/FIFO\[3\]\[1\]
*1351 memblk/FIFO_reg\[3\]\[1\]
*1352 memblk/n3
*1353 memblk/FIFO\[0\]\[0\]
*1354 memblk/U169
*1355 memblk/FIFO_reg\[0\]\[0\]
*1356 memblk/FIFO\[1\]\[0\]
*1357 memblk/U161
*1358 memblk/FIFO_reg\[1\]\[0\]
*1359 memblk/FIFO\[2\]\[0\]
*1360 memblk/FIFO_reg\[2\]\[0\]
*1361 memblk/FIFO\[3\]\[0\]
*1362 memblk/FIFO_reg\[3\]\[0\]
*1363 memblk/n180
*1364 memblk/n179
*1365 memblk/n2
*1366 memblk/n1
*1367 memblk/n124
*1368 memblk/n11
*1369 memblk/U19
*1370 memblk/U15
*1371 memblk/U17
*1372 memblk/n195
*1373 memblk/U16
*1374 memblk/n123
*1375 memblk/n122
*1376 memblk/n196
*1377 memblk/n121
*1378 memblk/n120
*1379 memblk/n119
*1380 memblk/n118
*1381 memblk/n117
*1382 memblk/n92
*1383 memblk/n10
*1384 memblk/U13
*1385 memblk/n91
*1386 memblk/n90
*1387 memblk/n89
*1388 memblk/n88
*1389 memblk/n87
*1390 memblk/n86
*1391 memblk/n85
*1392 memblk/n60
*1393 memblk/n8
*1394 memblk/n59
*1395 memblk/n58
*1396 memblk/n57
*1397 memblk/n56
*1398 memblk/n55
*1399 memblk/n54
*1400 memblk/n53
*1401 memblk/n49
*1402 memblk/n7
*1403 memblk/n48
*1404 memblk/n47
*1405 memblk/n46
*1406 memblk/n45
*1407 memblk/n44
*1408 memblk/n43
*1409 memblk/n42
*1410 memblk/n20
*1411 memblk/n9
*1412 memblk/U85
*1413 memblk/n213
*1414 memblk/n148
*1415 memblk/n192
*1416 memblk/n194
*1417 memblk/U14
*1418 memblk/n147
*1419 memblk/n146
*1420 memblk/n145
*1421 memblk/n144
*1422 memblk/n143
*1423 memblk/n142
*1424 memblk/n141
*1425 memblk/n140
*1426 memblk/n139
*1427 memblk/n138
*1428 memblk/n137
*1429 memblk/n136
*1430 memblk/n193
*1431 memblk/n135
*1432 memblk/n134
*1433 memblk/n133
*1434 memblk/n132
*1435 memblk/n131
*1436 memblk/n130
*1437 memblk/n129
*1438 memblk/n128
*1439 memblk/n127
*1440 memblk/n126
*1441 memblk/n125
*1442 memblk/n116
*1443 memblk/n197
*1444 memblk/U18
*1445 memblk/n115
*1446 memblk/n114
*1447 memblk/n113
*1448 memblk/n112
*1449 memblk/n111
*1450 memblk/n110
*1451 memblk/n109
*1452 memblk/n108
*1453 memblk/n107
*1454 memblk/n106
*1455 memblk/n105
*1456 memblk/n104
*1457 memblk/n198
*1458 memblk/n103
*1459 memblk/n102
*1460 memblk/n101
*1461 memblk/n100
*1462 memblk/n99
*1463 memblk/n98
*1464 memblk/n97
*1465 memblk/n96
*1466 memblk/n95
*1467 memblk/n94
*1468 memblk/n93
*1469 memblk/n15
*1470 memblk/U86
*1471 memblk/n16
*1472 memblk/n18
*1473 memblk/n19
*1474 memblk/n17
*1475 memblk/n12
*1476 memblk/n14
*1477 memblk/n13
*1478 memblk/n212
*1479 memblk/n84
*1480 memblk/n83
*1481 memblk/n82
*1482 memblk/n81
*1483 memblk/n80
*1484 memblk/n79
*1485 memblk/n78
*1486 memblk/n77
*1487 memblk/n76
*1488 memblk/n75
*1489 memblk/n74
*1490 memblk/n73
*1491 memblk/n72
*1492 memblk/n71
*1493 memblk/n70
*1494 memblk/n69
*1495 memblk/n68
*1496 memblk/n67
*1497 memblk/n66
*1498 memblk/n65
*1499 memblk/n64
*1500 memblk/n63
*1501 memblk/n62
*1502 memblk/n61
*1503 memblk/n52
*1504 memblk/n51
*1505 memblk/n50
*1506 memblk/n41
*1507 memblk/n40
*1508 memblk/n39
*1509 memblk/n38
*1510 memblk/n37
*1511 memblk/n36
*1512 memblk/n35
*1513 memblk/n34
*1514 memblk/n33
*1515 memblk/n32
*1516 memblk/n31
*1517 memblk/n30
*1518 memblk/n29
*1519 memblk/n28
*1520 memblk/n27
*1521 memblk/n26
*1522 memblk/n25
*1523 memblk/n24
*1524 memblk/n23
*1525 memblk/n22
*1526 memblk/n21
*1527 memblk/n190
*1528 F_FirstN_reg
*1529 F_SLastN_reg
*1530 F_LastN_reg
*1531 F_EmptyN_reg
*1532 F_FullN_reg
*1533 U291
*1534 U261
*1535 U259
*1536 U209
*1537 U2
*1538 U3
*1539 U4
*1540 n33
*1541 U47
*1542 n35
*1543 n31
*1544 n32
*1545 n34
*1546 n15
*1547 U297
*1548 n27
*1549 n29
*1550 n30
*1551 n28
*1552 n181
*1553 U284
*1554 U264
*1555 U163
*1556 n2
*1557 n26
*1558 U295
*1559 n25
*1560 U294
*1561 n24
*1562 U289
*1563 U290
*1564 U175
*1565 U1
*1566 U292
*1567 U262
*1568 U208
*1569 U207
*1570 n77
*1571 n179
*1572 U293
*1573 U263
*1574 U160
*1575 n38
*1576 n3
*1577 n4
*1578 U287
*1579 n79
*1580 U260
*1581 U210
*1582 n23
*1583 n18
*1584 U167
*1585 n76
*1586 n180
*1587 n19
*1588 n16
*1589 U286
*1590 n182
*1591 n13
*1592 U283
*1593 n44
*1594 n14
*1595 n1
*1596 n12
*1597 n43
*1598 n143
*1599 n142
*1600 n141
*1601 n140
*1602 n139
*1603 n138